power-flow-agent/results/ieee14/2026-09-16/gpt-5.4/react_nogate__stress/traces/10_case14-stress-004-s1.transcript.txt
==============================================================================
TRANSCRIPT  react_nogate  |  openrouter:openai/gpt-5.4  |  case14  |  case14-stress-004-s1  run 0
==============================================================================
date: 2026-09-16   seed: 0   difficulty: stress   tool variant: None

[system]   (hash 7da5e2a37ec4, from methods/react_nogate/method.json prompt_files)
You are a power system power-flow analysis assistant. You help the user complete power system analysis tasks from natural-language requests.

## What you can do
You complete tasks by calling tool functions:
1. Load an IEEE standard test system (14, 30, 57, 118, 300 buses)
2. Run AC power flow
3. Modify the load at a bus and re-solve
4. Disconnect or reconnect a line and re-solve
5. Query the network status
6. Run an N-1 contingency analysis (disconnect branches one at a time and rank the worst cases)
7. Generate remedial-action suggestions (what-if load shedding or voltage adjustment) to reduce violation risk

## Key rules
- Never fabricate any numerical result. Every voltage, power, loss, or loading value must come from a tool return value.
- If a tool reports an error or a non-converged power flow, say so explicitly and do not report numbers for that state.
- If the request is ambiguous, state the interpretation you are using.
- Bus and line identifiers in the request are MATPOWER 1-based ids; pass them to the tools as given, unless the request itself states a different indexing convention for that identifier (e.g. "(0-based)"), in which case convert it to the MATPOWER 1-based id before calling any tool.
- After a network modification, re-solve before reporting any value.
- Always reply in English.

## Reply format
After each analysis, reply in this structure:
1. One-sentence summary
2. Key numbers (total load, total generation, total losses, voltage range) taken from the tool outputs
3. Violations, if any
4. Suggested next step

[user]
Load case14, increase the load at bus 13 to 81 MW and 34.8 Mvar (six times its nominal value), increase the load at bus 3 to 565.2 MW and 114 Mvar (six times its nominal value), and finally increase the active load at bus 4 to 286.8 MW (six times its nominal value).

[tools available to the model]   (function-calling schema, --tool-variant v1; enum values and defaults as sent)
  load_case(case_name: string* in {case14, case30, case57, case118, case300})  Load IEEE test case.
  run_powerflow()  Run power flow on current case.
  modify_load(bus_id: integer*, p_mw: number*, q_mvar: number)  Modify bus load and recompute.
  disconnect_line(from_bus: integer*, to_bus: integer*)  Disconnect line/branch between two buses and recompute.
  reconnect_line(from_bus: integer*, to_bus: integer*)  Reconnect line/branch between two buses and recompute.
  get_most_loaded_branch()  Get most loaded branch.
  run_n1_contingency(top_k: integer (default 5), criteria: string in {max_violations, max_overload, min_voltage} (default max_violations), max_candidates: integer (default 0))  Run N-1 contingency analysis.
  recommend_remedial_actions(max_actions: integer (default 5), allow_load_shed: boolean (default True), allow_voltage_control: boolean (default True), include_best_comparison: boolean (default True))  Recommend remedial actions.
  apply_remedial_action(action_index: integer*, confirmed: boolean (default False))  Apply one remedial action by index.
  get_status()  Get current network status.
  generate_plot(plot_type: string* in {voltage_heatmap, flow_diagram, violation_overview, comparison})  Generate one plot.

--- round 1 ---
[assistant]   (818 in / 20 out tokens, 1.2 s)
(no text)
tool_call  load_case(case_name="case14")
[tool load_case]   (gate: not applied)
{"case_name": "case14", "n_buses": 14, "n_generators": 5, "n_lines": 20, "n_loads": 11, "total_load_mw": 259.32153676395666, "total_gen_capacity_mw": 772.4000000000001}

--- round 2 ---
[assistant]   (919 in / 33 out tokens, 1.4 s)
(no text)
tool_call  modify_load(bus_id=13, p_mw=81, q_mvar=34.8)
[tool modify_load]   (gate: pass)
{"case_name": "case14", "converged": true, "bus_voltages": [{"bus_id": 1, "vm_pu": 1.06, "va_deg": 0.0, "is_violation": true, "violation_type": "overvoltage"}, {"bus_id": 2, "vm_pu": 1.0449999999999997, "va_deg": -6.7548321187012235, "is_violation": false, "violation_type": null}, {"bus_id": 3, "vm_pu": 1.0100000000000002, "va_deg": -15.796011843743573, "is_violation": false, "violation_type": null}, {"bus_id": 4, "vm_pu": 1.0059434382496817, "va_deg": -13.801131914092297, "is_violation": false, "violation_type": null}, {"bus_id": 5, "vm_pu": 1.005413766803276, "va_deg": -12.241058948946705, "is_violation": false, "violation_type": null}, {"bus_id": 6, "vm_pu": 1.07, "va_deg": -23.56322803717453, "is_violation": true, "violation_type": "overvoltage"}, {"bus_id": 7, "vm_pu": 1.0550820403884076, "va_deg": -18.67024183728991, "is_violation": true, "violation_type": "overvoltage"}, {"bus_id": 8, "vm_pu": 1.0899999999999999, "va_deg": -18.670241837289907, "is_violation": true, "violation_type": "overvoltage"}, {"bus_id": 9, "vm_pu": 1.0501782790053689, "va_deg": -21.17677536560127, "is_violation": true, "violation_type": "overvoltage"}, {"bus_id": 10, "vm_pu": 1.0467806160483335, "va_deg": -21.87354384831403, "is_violation": false, "violation_type": null}, {"bus_id": 11, "vm_pu": 1.0551190548306926, "va_deg": -22.828092175354662, "is_violation": true, "violation_type": "overvoltage"}, {"bus_id": 12, "vm_pu": 1.0280654736641606, "va_deg": -25.74723240620197, "is_violation": false, "violation_type": null}, {"bus_id": 13, "vm_pu": 0.9893440603187456, "va_deg": -26.575354641734087, "is_violation": false, "violation_type": null}, {"bus_id": 14, "vm_pu": 1.0047015344350303, "va_deg": -24.50715725773932, "is_violation": false, "violation_type": null}], "line_flows": [{"line_id": 0, "from_bus": 1, "to_bus": 2, "p_from_mw": 210.65362518776558, "q_from_mvar": -32.095285146010525, "loading_percent": 2.0305376819857526, "is_violation": false}, {"line_id": 1, "from_bus": 1, "to_bus": 5, "p_from_mw": 104.11691376651669, "q_from_mvar": 8.820167812605167, "loading_percent": 0.9960240681921523, "is_violation": false}, {"line_id": 2, "from_bus": 2, "to_bus": 3, "p_from_mw": 84.9507163305434, "q_from_mvar": 2.543524001904612, "loading_percent": 0.8215048653528505, "is_violation": false}, {"line_id": 3, "from_bus": 2, "to_bus": 4, "p_from_mw": 74.19052069864337, "q_from_mvar": 1.3430961932060508, "loading_percent": 0.7172459230196372, "is_violation": false}, {"line_id": 4, "from_bus": 2, "to_bus": 5, "p_from_mw": 60.028755720492, "q_from_mvar": 5.008702476095225, "loading_percent": 0.5846502328740883, "is_violation": false}, {"line_id": 5, "from_bus": 3, "to_bus": 4, "p_from_mw": -16.991045327038353, "q_from_mvar": 8.75986113265653, "loading_percent": 0.19729677363515236, "is_violation": false}, {"line_id": 6, "from_bus": 4, "to_bus": 5, "p_from_mw": -58.7958477785584, "q_from_mvar": 20.79543374029245, "loading_percent": 0.62622823892659, "is_violation": false}, {"line_id": 7, "from_bus": 6, "to_bus": 11, "p_from_mw": -2.7991806523841984, "q_from_mvar": 9.388737829504656, "loading_percent": 0.0924868569997129, "is_violation": false}, {"line_id": 8, "from_bus": 6, "to_bus": 12, "p_from_mw": 20.282858404029383, "q_from_mvar": 8.1073256962153, "loading_percent": 0.2062035976048475, "is_violation": false}, {"line_id": 9, "from_bus": 6, "to_bus": 13, "p_from_mw": 61.1450293754543, "q_from_mvar": 36.322207811641334, "loading_percent": 0.6713843090642738, "is_violation": false}, {"line_id": 10, "from_bus": 9, "to_bus": 10, "p_from_mw": 15.280724524845002, "q_from_mvar": -1.4335630287271728, "loading_percent": 0.14762113227360057, "is_violation": false}, {"line_id": 11, "from_bus": 9, "to_bus": 14, "p_from_mw": 25.621256075259403, "q_from_mvar": 6.277624345964972, "loading_percent": 0.25372419145319025, "is_violation": false}, {"line_id": 12, "from_bus": 10, "to_bus": 11, "p_from_mw": 6.4884098832581225, "q_from_mvar": -7.2364152044019106, "loading_percent": 0.0937875052389854, "is_violation": false}, {"line_id": 13, "from_bus": 12, "to_bus": 13, "p_from_mw": 13.245248240574398, "q_from_mvar": 5.329688986788897, "loading_percent": 0.1402784843655654, "is_violation": false}, {"line_id": 14, "from_bus": 13, "to_bus": 14, "p_from_mw": -9.958218486692777, "q_from_mvar": 0.711242542709239, "loading_percent": 0.10193046383933449, "is_violation": false}, {"line_id": 100000, "from_bus": 4, "to_bus": 7, "p_from_mw": 44.04832992399824, "q_from_mvar": -11.166361354290572, "loading_percent": 0.45629454499434874, "is_violation": false}, {"line_id": 100001, "from_bus": 4, "to_bus": 9, "p_from_mw": 25.1637059806196, "q_from_mvar": -0.6278244531412859, "loading_percent": 0.25275570899423566, "is_violation": false}, {"line_id": 100002, "from_bus": 5, "to_bus": 6, "p_from_mw": 89.91963058167897, "q_from_mvar": 12.667545973046867, "loading_percent": 0.9123087055990159, "is_violation": false}, {"line_id": 100003, "from_bus": 7, "to_bus": 8, "p_from_mw": -1.23599031996367e-14, "q_from_mvar": -20.914738616632818, "loading_percent": 0.20023086161984424, "is_violation": false}, {"line_id": 100004, "from_bus": 7, "to_bus": 9, "p_from_mw": 44.04832995134695, "q_from_mvar": 5.666741770137267, "loading_percent": 0.4251796552419655, "is_violation": false}], "total_generation_mw": 354.46138791830475, "total_load_mw": 327.61362417102123, "total_loss_mw": 26.84776450020474, "voltage_violations": [{"bus_id": 1, "vm_pu": 1.06, "va_deg": 0.0, "is_violation": true, "violation_type": "overvoltage"}, {"bus_id": 6, "vm_pu": 1.07, "va_deg": -23.56322803717453, "is_violation": true, "violation_type": "overvoltage"}, {"bus_id": 7, "vm_pu": 1.0550820403884076, "va_deg": -18.67024183728991, "is_violation": true, "violation_type": "overvoltage"}, {"bus_id": 8, "vm_pu": 1.0899999999999999, "va_deg": -18.670241837289907, "is_violation": true, "violation_type": "overvoltage"}, {"bus_id": 9, "vm_pu": 1.0501782790053689, "va_deg": -21.17677536560127, "is_violation": true, "violation_type": "overvoltage"}, {"bus_id": 11, "vm_pu": 1.0551190548306926, "va_deg": -22.828092175354662, "is_violation": true, "violation_type": "overvoltage"}], "thermal_violations": [], "summary_text": "", "solver_backend": "pandapower", "llm_prompt": null, "llm_response": null}

--- round 3 ---
[assistant]   (3517 in / 33 out tokens, 1.4 s)
(no text)
tool_call  modify_load(bus_id=3, p_mw=565.2, q_mvar=114)
[tool modify_load]   (gate: pass)
{"case_name": "case14", "converged": true, "bus_voltages": [{"bus_id": 1, "vm_pu": 1.06, "va_deg": 0.0, "is_violation": true, "violation_type": "overvoltage"}, {"bus_id": 2, "vm_pu": 1.0449999999999997, "va_deg": -26.32035213097157, "is_violation": false, "violation_type": null}, {"bus_id": 3, "vm_pu": 1.01, "va_deg": -76.49522209667973, "is_violation": false, "violation_type": null}, {"bus_id": 4, "vm_pu": 0.9343730912659142, "va_deg": -43.202129557851485, "is_violation": true, "violation_type": "undervoltage"}, {"bus_id": 5, "vm_pu": 0.9342836854536747, "va_deg": -36.28087114506502, "is_violation": true, "violation_type": "undervoltage"}, {"bus_id": 6, "vm_pu": 1.0700000000000003, "va_deg": -50.467456532639275, "is_violation": true, "violation_type": "overvoltage"}, {"bus_id": 7, "vm_pu": 1.021359650229763, "va_deg": -47.53266414821646, "is_violation": false, "violation_type": null}, {"bus_id": 8, "vm_pu": 1.0899999999999999, "va_deg": -47.532664148216455, "is_violation": true, "violation_type": "overvoltage"}, {"bus_id": 9, "vm_pu": 1.0153396659791518, "va_deg": -49.674744825407686, "is_violation": false, "violation_type": null}, {"bus_id": 10, "vm_pu": 1.017652243712666, "va_deg": -50.09222841678286, "is_violation": false, "violation_type": null}, {"bus_id": 11, "vm_pu": 1.039971464997917, "va_deg": -50.38977508027014, "is_violation": false, "violation_type": null}, {"bus_id": 12, "vm_pu": 1.0256023883476515, "va_deg": -52.799672610598776, "is_violation": false, "violation_type": null}, {"bus_id": 13, "vm_pu": 0.9835650789055648, "va_deg": -53.73361220922864, "is_violation": false, "violation_type": null}, {"bus_id": 14, "vm_pu": 0.9824753238570345, "va_deg": -52.5096794001417, "is_violation": false, "violation_type": null}], "line_flows": [{"line_id": 0, "from_bus": 1, "to_bus": 2, "p_from_mw": 814.9921362539023, "q_from_mvar": -48.950921143705365, "loading_percent": 7.78026380634058, "is_violation": false}, {"line_id": 1, "from_bus": 1, "to_bus": 5, "p_from_mw": 281.5504210009882, "q_from_mvar": 74.86283885212023, "loading_percent": 2.7761891286348206, "is_violation": false}, {"line_id": 2, "from_bus": 2, "to_bus": 3, "p_from_mw": 434.83654928335227, "q_from_mvar": 104.56201001970476, "loading_percent": 4.322957099844356, "is_violation": false}, {"line_id": 3, "from_bus": 2, "to_bus": 4, "p_from_mw": 171.64559630018596, "q_from_mvar": 31.004100843515676, "loading_percent": 1.6876496920197905, "is_violation": false}, {"line_id": 4, "from_bus": 2, "to_bus": 5, "p_from_mw": 109.89764402710504, "q_from_mvar": 37.1192150150727, "loading_percent": 1.130041144695053, "is_violation": false}, {"line_id": 5, "from_bus": 3, "to_bus": 4, "p_from_mw": -216.64831943273074, "q_from_mvar": 219.45361663533802, "loading_percent": 3.090006548902958, "is_violation": false}, {"line_id": 6, "from_bus": 4, "to_bus": 5, "p_from_mw": -222.59155689869095, "q_from_mvar": 85.87295826969753, "loading_percent": 2.579178364783331, "is_violation": false}, {"line_id": 7, "from_bus": 6, "to_bus": 11, "p_from_mw": 5.6641422561844665, "q_from_mvar": 13.449850616224138, "loading_percent": 0.1377689814215941, "is_violation": false}, {"line_id": 8, "from_bus": 6, "to_bus": 12, "p_from_mw": 21.57077207760027, "q_from_mvar": 8.561749403411376, "loading_percent": 0.21908614425444062, "is_violation": false}, {"line_id": 9, "from_bus": 6, "to_bus": 13, "p_from_mw": 65.78278435622533, "q_from_mvar": 38.90346853812327, "loading_percent": 0.7214715741680454, "is_violation": false}, {"line_id": 10, "from_bus": 9, "to_bus": 10, "p_from_mw": 6.8983421018776445, "q_from_mvar": -5.343177957078274, "loading_percent": 0.08680613184667114, "is_violation": false}, {"line_id": 11, "from_bus": 9, "to_bus": 14, "p_from_mw": 19.870080487188982, "q_from_mvar": 3.451601791953529, "loading_percent": 0.20063583620355177, "is_violation": false}, {"line_id": 12, "from_bus": 10, "to_bus": 11, "p_from_mw": -1.849524521650873, "q_from_mvar": -11.0279584201195, "loading_percent": 0.11099003862150801, "is_violation": false}, {"line_id": 13, "from_bus": 12, "to_bus": 13, "p_from_mw": 14.467161799470718, "q_from_mvar": 5.646748239820097, "loading_percent": 0.15295388464266077, "is_violation": false}, {"line_id": 14, "from_bus": 13, "to_bus": 14, "p_from_mw": -4.631335975532024, "q_from_mvar": 2.6460137052248514, "loading_percent": 0.05477821652929742, "is_violation": false}, {"line_id": 100000, "from_bus": 4, "to_bus": 7, "p_from_mw": 35.23464495480768, "q_from_mvar": -28.80611713729812, "loading_percent": 0.4919977442000149, "is_violation": false}, {"line_id": 100001, "from_bus": 4, "to_bus": 9, "p_from_mw": 19.843833007794185, "q_from_mvar": -7.732850379105617, "loading_percent": 0.23023369612856112, "is_violation": false}, {"line_id": 100002, "from_bus": 5, "to_bus": 6, "p_from_mw": 104.30862256764422, "q_from_mvar": -13.88905744024917, "loading_percent": 1.1376862452652958, "is_violation": false}, {"line_id": 100003, "from_bus": 7, "to_bus": 8, "p_from_mw": -4.8438146170443255e-14, "q_from_mvar": -39.79930947089279, "loading_percent": 0.393605941734901, "is_violation": false}, {"line_id": 100004, "from_bus": 7, "to_bus": 9, "p_from_mw": 35.23464495607527, "q_from_mvar": 6.24782439054949, "loading_percent": 0.3538983445677469, "is_violation": false}], "total_generation_mw": 1136.2334062189132, "total_load_mw": 793.9876666752314, "total_loss_mw": 342.2457397031242, "voltage_violations": [{"bus_id": 1, "vm_pu": 1.06, "va_deg": 0.0, "is_violation": true, "violation_type": "overvoltage"}, {"bus_id": 4, "vm_pu": 0.9343730912659142, "va_deg": -43.202129557851485, "is_violation": true, "violation_type": "undervoltage"}, {"bus_id": 5, "vm_pu": 0.9342836854536747, "va_deg": -36.28087114506502, "is_violation": true, "violation_type": "undervoltage"}, {"bus_id": 6, "vm_pu": 1.0700000000000003, "va_deg": -50.467456532639275, "is_violation": true, "violation_type": "overvoltage"}, {"bus_id": 8, "vm_pu": 1.0899999999999999, "va_deg": -47.532664148216455, "is_violation": true, "violation_type": "overvoltage"}], "thermal_violations": [], "summary_text": "", "solver_backend": "pandapower", "llm_prompt": null, "llm_response": null}

--- round 4 ---
[assistant]   (6057 in / 36 out tokens, 1.3 s)
(no text)
tool_call  modify_load(bus_id=4, p_mw=286.8, q_mvar=-3.9)
[tool modify_load]   (gate: FAIL, not enforced)
{"case_name": "case14", "converged": false, "bus_voltages": [], "line_flows": [], "total_generation_mw": 0.0, "total_load_mw": 0.0, "total_loss_mw": 0.0, "voltage_violations": [], "thermal_violations": [], "summary_text": "Power flow failed: LoadflowNotConverged: Power Flow nr did not converge after 10 iterations!", "solver_backend": "pandapower", "llm_prompt": null, "llm_response": null}

--- round 5 ---
[assistant]   (6230 in / 325 out tokens, 5.0 s)
1. One-sentence summary  
I loaded IEEE case14, increased the loads at buses 13 and 3 as requested, and then interpreted your final instruction as changing only the active load at bus 4 to 286.8 MW while keeping its reactive load unchanged at -3.9 Mvar; under that final stressed condition, the AC power flow did not converge.

2. Key numbers  
- Final state: no valid solved operating-point numbers can be reported because the power flow did not converge.  
- Solver message: `Power flow failed: LoadflowNotConverged: Power Flow nr did not converge after 10 iterations!`

3. Violations, if any  
- For the final state, violations cannot be reliably reported because there is no converged solution.  
- Intermediate solved state after increasing bus 13 and bus 3 loads, before changing bus 4:
  - Total load: 793.99 MW
  - Total generation: 1136.23 MW
  - Total losses: 342.25 MW
  - Voltage range: 0.9343 to 1.0900 pu
  - Voltage violations:
    - Overvoltage at buses 1, 6, 8
    - Undervoltage at buses 4, 5
  - No thermal violations were reported by the tool

4. Suggested next step  
A good next step is to back off the stress slightly at bus 4 or run remedial-action recommendations to see whether voltage control or limited load shedding can restore convergence under this loading scenario.

[final answer]
1. One-sentence summary  
I loaded IEEE case14, increased the loads at buses 13 and 3 as requested, and then interpreted your final instruction as changing only the active load at bus 4 to 286.8 MW while keeping its reactive load unchanged at -3.9 Mvar; under that final stressed condition, the AC power flow did not converge.

2. Key numbers  
- Final state: no valid solved operating-point numbers can be reported because the power flow did not converge.  
- Solver message: `Power flow failed: LoadflowNotConverged: Power Flow nr did not converge after 10 iterations!`

3. Violations, if any  
- For the final state, violations cannot be reliably reported because there is no converged solution.  
- Intermediate solved state after increasing bus 13 and bus 3 loads, before changing bus 4:
  - Total load: 793.99 MW
  - Total generation: 1136.23 MW
  - Total losses: 342.25 MW
  - Voltage range: 0.9343 to 1.0900 pu
  - Voltage violations:
    - Overvoltage at buses 1, 6, 8
    - Undervoltage at buses 4, 5
  - No thermal violations were reported by the tool

4. Suggested next step  
A good next step is to back off the stress slightly at bus 4 or run remedial-action recommendations to see whether voltage control or limited load shedding can restore convergence under this loading scenario.
